data/ELK14/A5.m
function mpc = ELK14
mpc.version = '2';
mpc.baseMVA = 100.0;

%	bus_i	type	Pd	Qd	Gs	Bs	area	Vm	Va	baseKV	zone	Vmax	Vmin
mpc.bus = [
	1	 2	 160.0	 80.0	 0.0	 0.0	 1	    1.0000	   0.00000	 240.0	 1	    1.10000	    0.90000;
	2	 2	 90.0	 30.0	 0.0	 0.0	 1	    1.0000	   0.00000	 240.0	 1	    1.10000	    0.90000;
	3	 2	 60.0	 20.0	 0.0	 0.0	 1	    1.0000	   0.00000	 240.0	 1	    1.10000	    0.90000;
	4	 3	 0.0	 0.0	 0.0	 0.0	 1	    1.0000	   0.00000	 240.0	 1	    1.10000	    0.90000;
];

%	bus	Pg	Qg	Qmax	Qmin	Vg	mBase	status	Pmax	Pmin	Pc1	Pc2	Qc1min	Qc1max	Qc2min	Qc2max	ramp_agc	ramp_10	ramp_30	ramp_q	apf	%    Unit Code
mpc.gen = [
	1	 50.0	50	 1000.0	 -1000.0	 1.0	 100.0	 1	 200.0	 0.0	0    0    0    0    0    0    6.0    6.0     6.0     6.0    0;
	2	 50.0	50	 1000.0	 -1000.0	 1.0	 100.0	 1	 200.0	 0.0	0    0    0    0    0    0    6.0    6.0     6.0     6.0    0;
	3	 50.0	50	 1000.0	 -1000.0	 1.0	 100.0	 1	 200.0	 0.0	0    0    0    0    0    0    6.0    6.0     6.0     6.0    0;
	4	 50.0	50	 1000.0	 -1000.0	 1.0	 100.0	 1	 200.0	 0.0	0    0    0    0    0    0    6.0    6.0     6.0     6.0    0;
];

%	2	startup	shutdown	n	c(n-1)	...	c0
mpc.gencost = [
	2	 0.0	 0.0	 3	   0.110000	   4.000000	   0.000000;
	2	 0.0	 0.0	 3	   0.085000	   5.000000	   0.000000;
	2	 0.0	 0.0	 3	   0.043000	   3.000000	   0.000000;
	2	 0.0	 0.0	 3	   0.13000	   2.000000	   0.000000;
];

%	fbus	tbus	r	x	b	rateA	rateB	rateC	ratio	angle	status	angmin	angmax
mpc.branch = [
	1	 2	 0.05	 0.2	 0.45	 100.0	 0.0	 0.0	 0.0	 0.0	 1	 -30.0	 30.0;
	1	 3	 0.05	 0.1	 0.7	 100.0	 0.0	 0.0	 0.0	 0.0	 1	 -30.0	 30.0;
	2	 3	 0.05	 0.4	 0.3	 75.0	 0.0	 0.0	 0.0	 0.0	 1	 -30.0	 30.0;
	2	 3	 0.05	 0.4	 0.3	 75.0	 0.0	 0.0	 0.0	 0.0	 1	 -30.0	 30.0;
	3	 4	 0.05	 0.25	 0.3	 100.0	 0.0	 0.0	 0.0	 0.0	 1	 -30.0	 30.0;
];
